Version 4
SHEET 1 1160 980
WIRE 864 -288 592 -288
WIRE 864 -272 512 -272
WIRE 1088 -272 928 -272
WIRE 208 -256 -288 -256
WIRE 864 -256 832 -256
WIRE 592 -240 592 -288
WIRE 592 -240 272 -240
WIRE 832 -240 832 -256
WIRE 864 -240 832 -240
WIRE 208 -224 112 -224
WIRE 832 -224 832 -240
WIRE 864 -224 832 -224
WIRE 1088 -208 1088 -272
WIRE 832 -176 832 -224
WIRE 848 -176 832 -176
WIRE 880 -176 880 -224
WIRE 880 -176 848 -176
WIRE 848 -128 848 -176
WIRE 928 -128 848 -128
WIRE 1088 -128 928 -128
WIRE -288 -80 -288 -256
WIRE -144 -80 -208 -80
WIRE 208 -80 -144 -80
WIRE 512 -64 512 -272
WIRE 512 -64 272 -64
WIRE 112 -48 112 -224
WIRE 208 -48 112 -48
WIRE 928 -32 928 -128
WIRE -144 -16 -144 -80
WIRE 512 32 512 -64
WIRE 736 32 512 32
WIRE 880 32 800 32
WIRE -288 48 -288 -80
WIRE 880 48 800 48
WIRE 1104 48 944 48
WIRE 880 64 848 64
WIRE 592 80 592 -240
WIRE 800 80 800 48
WIRE 800 80 592 80
WIRE 848 80 848 64
WIRE 880 80 848 80
WIRE 848 96 848 80
WIRE 880 96 848 96
WIRE 112 112 112 -48
WIRE 1104 112 1104 48
WIRE 848 144 848 96
WIRE 864 144 848 144
WIRE 896 144 896 96
WIRE 896 144 864 144
WIRE -288 192 -288 128
WIRE 736 192 736 48
WIRE 864 192 864 144
WIRE 864 192 736 192
WIRE 944 192 864 192
WIRE 1104 192 944 192
WIRE 944 288 944 192
WIRE 592 352 592 80
WIRE 736 352 592 352
WIRE 880 352 800 352
WIRE 880 368 800 368
WIRE 1104 368 944 368
WIRE 880 384 848 384
WIRE 512 400 512 32
WIRE 800 400 800 368
WIRE 800 400 512 400
WIRE 848 400 848 384
WIRE 880 400 848 400
WIRE 848 416 848 400
WIRE 880 416 848 416
WIRE 1104 432 1104 368
WIRE 848 464 848 416
WIRE 864 464 848 464
WIRE 896 464 896 416
WIRE 896 464 864 464
WIRE 736 512 736 368
WIRE 864 512 864 464
WIRE 864 512 736 512
WIRE 944 512 864 512
WIRE 1104 512 944 512
WIRE 944 608 944 512
WIRE 592 704 592 352
WIRE 736 704 592 704
WIRE 880 704 800 704
WIRE 736 720 704 720
WIRE 880 720 800 720
WIRE 1104 720 944 720
WIRE 880 736 848 736
WIRE 512 752 512 400
WIRE 736 752 512 752
WIRE 800 752 800 720
WIRE 848 752 848 736
WIRE 880 752 848 752
WIRE 704 768 704 720
WIRE 736 768 704 768
WIRE 848 768 848 752
WIRE 880 768 848 768
WIRE 1104 784 1104 720
WIRE 848 816 848 768
WIRE 864 816 848 816
WIRE 896 816 896 768
WIRE 896 816 864 816
WIRE 704 864 704 768
WIRE 864 864 864 816
WIRE 864 864 704 864
WIRE 944 864 864 864
WIRE 1104 864 944 864
WIRE 944 960 944 864
FLAG 112 192 0
FLAG -288 192 0
FLAG -560 192 0
FLAG -560 112 vcc
FLAG 240 -272 vcc
FLAG 240 -96 vcc
FLAG 240 -32 0
FLAG 240 -208 0
FLAG 928 -32 0
FLAG 944 288 0
FLAG 944 608 0
FLAG -144 48 0
FLAG 944 960 0
SYMBOL voltage 112 96 R0
WINDOW 123 0 0 Left 2
WINDOW 39 0 0 Left 2
SYMATTR InstName V1
SYMATTR Value PULSE(0 5 0 1u 1n 0 1u)
SYMBOL voltage -288 32 R0
WINDOW 123 0 0 Left 2
WINDOW 39 0 0 Left 2
SYMATTR InstName V2
SYMATTR Value PULSE(1 4 5u 1n 1n 5u 10u)
SYMBOL Comparators\\LTC6752 240 -128 R0
SYMATTR InstName U2
SYMBOL Comparators\\LTC6752 240 -304 R0
SYMATTR InstName U1
SYMBOL voltage -560 96 R0
WINDOW 123 0 0 Left 2
WINDOW 39 0 0 Left 2
SYMATTR InstName V4
SYMATTR Value 5
SYMBOL Digital\\and 896 -320 R0
WINDOW 3 16 52 Left 2
SYMATTR Value Vhigh=5
SYMATTR InstName A1
SYMBOL res 1072 -224 R0
SYMATTR InstName 1k
SYMATTR Value 1k
SYMBOL Digital\\and 912 0 R0
WINDOW 3 16 52 Left 2
SYMATTR Value Vhigh=5
SYMATTR InstName A2
SYMBOL res 1088 96 R0
SYMATTR InstName R1
SYMATTR Value 1k
SYMBOL Digital\\inv 736 -32 R0
WINDOW 3 8 60 Left 2
SYMATTR Value Vhigh=5
SYMATTR InstName A3
SYMBOL Digital\\and 912 320 R0
WINDOW 3 16 52 Left 2
SYMATTR Value Vhigh=5
SYMATTR InstName A4
SYMBOL res 1088 416 R0
SYMATTR InstName R4
SYMATTR Value 1k
SYMBOL Digital\\inv 736 288 R0
WINDOW 3 8 60 Left 2
SYMATTR Value Vhigh=5
SYMATTR InstName A5
SYMBOL res -192 -96 R90
WINDOW 0 0 56 VBottom 2
WINDOW 3 32 56 VTop 2
SYMATTR InstName R6
SYMATTR Value 1
SYMBOL cap -160 -16 R0
SYMATTR InstName C1
SYMATTR Value 1µ
SYMBOL Digital\\and 912 672 R0
WINDOW 3 16 52 Left 2
SYMATTR Value Vhigh=5
SYMATTR InstName A6
SYMBOL res 1088 768 R0
SYMATTR InstName R2
SYMATTR Value 1k
SYMBOL Digital\\inv 736 640 R0
WINDOW 3 8 60 Left 2
SYMATTR Value Vhigh=5
SYMATTR InstName A7
SYMBOL Digital\\inv 736 688 R0
WINDOW 3 8 60 Left 2
SYMATTR Value Vhigh=5
SYMATTR InstName A8
TEXT -320 216 Left 2 !.tran 20u
